 PDE   2005    4 1  0000000000000     63.52 -147.44  11 8.50 Ms GS   9C.G F.S.
../4_in/ALL_2005_4_1
 PDE   2005    4 2  0000000000000     63.52 -147.44  11 8.50 Ms GS   9C.G F.S.
../4_in/ALL_2005_4_2
 PDE   2005    4 3  0000000000000     63.52 -147.44  11 8.50 Ms GS   9C.G F.S.
../4_in/ALL_2005_4_3
 PDE   2005    4 4  0000000000000     63.52 -147.44  11 8.50 Ms GS   9C.G F.S.
../4_in/ALL_2005_4_4
 PDE   2005    4 5  0000000000000     63.52 -147.44  11 8.50 Ms GS   9C.G F.S.
../4_in/ALL_2005_4_5
 PDE   2005    4 6  0000000000000     63.52 -147.44  11 8.50 Ms GS   9C.G F.S.
../4_in/ALL_2005_4_6
 PDE   2005    4 7  0000000000000     63.52 -147.44  11 8.50 Ms GS   9C.G F.S.
../4_in/ALL_2005_4_7
 PDE   2005    4 8  0000000000000     63.52 -147.44  11 8.50 Ms GS   9C.G F.S.
../4_in/ALL_2005_4_8
 PDE   2005    4 9  0000000000000     63.52 -147.44  11 8.50 Ms GS   9C.G F.S.
../4_in/ALL_2005_4_9
 PDE   2005    4 10  0000000000000     63.52 -147.44  11 8.50 Ms GS   9C.G F.S.
../4_in/ALL_2005_4_10
 PDE   2005    4 11  0000000000000     63.52 -147.44  11 8.50 Ms GS   9C.G F.S.
../4_in/ALL_2005_4_11
 PDE   2005    4 12  0000000000000     63.52 -147.44  11 8.50 Ms GS   9C.G F.S.
../4_in/ALL_2005_4_12
 PDE   2005    4 13  0000000000000     63.52 -147.44  11 8.50 Ms GS   9C.G F.S.
../4_in/ALL_2005_4_13
 PDE   2005    4 14  0000000000000     63.52 -147.44  11 8.50 Ms GS   9C.G F.S.
../4_in/ALL_2005_4_14
 PDE   2005    4 15  0000000000000     63.52 -147.44  11 8.50 Ms GS   9C.G F.S.
../4_in/ALL_2005_4_15
 PDE   2005    4 16  0000000000000     63.52 -147.44  11 8.50 Ms GS   9C.G F.S.
../4_in/ALL_2005_4_16
 PDE   2005    4 17  0000000000000     63.52 -147.44  11 8.50 Ms GS   9C.G F.S.
../4_in/ALL_2005_4_17
 PDE   2005    4 18  0000000000000     63.52 -147.44  11 8.50 Ms GS   9C.G F.S.
../4_in/ALL_2005_4_18
 PDE   2005    4 19  0000000000000     63.52 -147.44  11 8.50 Ms GS   9C.G F.S.
../4_in/ALL_2005_4_19
 PDE   2005    4 20  0000000000000     63.52 -147.44  11 8.50 Ms GS   9C.G F.S.
../4_in/ALL_2005_4_20
 PDE   2005    4 21  0000000000000     63.52 -147.44  11 8.50 Ms GS   9C.G F.S.
../4_in/ALL_2005_4_21
 PDE   2005    4 22  0000000000000     63.52 -147.44  11 8.50 Ms GS   9C.G F.S.
../4_in/ALL_2005_4_22
 PDE   2005    4 23  0000000000000     63.52 -147.44  11 8.50 Ms GS   9C.G F.S.
../4_in/ALL_2005_4_23
 PDE   2005    4 24  0000000000000     63.52 -147.44  11 8.50 Ms GS   9C.G F.S.
../4_in/ALL_2005_4_24
 PDE   2005    4 25  0000000000000     63.52 -147.44  11 8.50 Ms GS   9C.G F.S.
../4_in/ALL_2005_4_25
 PDE   2005    4 26  0000000000000     63.52 -147.44  11 8.50 Ms GS   9C.G F.S.
../4_in/ALL_2005_4_26
 PDE   2005    4 27  0000000000000     63.52 -147.44  11 8.50 Ms GS   9C.G F.S.
../4_in/ALL_2005_4_27
 PDE   2005    4 28  0000000000000     63.52 -147.44  11 8.50 Ms GS   9C.G F.S.
../4_in/ALL_2005_4_28
 PDE   2005    4 29  0000000000000     63.52 -147.44  11 8.50 Ms GS   9C.G F.S.
../4_in/ALL_2005_4_29
 PDE   2005    4 30  0000000000000     63.52 -147.44  11 8.50 Ms GS   9C.G F.S.
../4_in/ALL_2005_4_30
