 PDE   2005    5 1  0000000000000     63.52 -147.44  11 8.50 Ms GS   9C.G F.S.
../5_in/ALL_2005_5_1
 PDE   2005    5 2  0000000000000     63.52 -147.44  11 8.50 Ms GS   9C.G F.S.
../5_in/ALL_2005_5_2
 PDE   2005    5 3  0000000000000     63.52 -147.44  11 8.50 Ms GS   9C.G F.S.
../5_in/ALL_2005_5_3
 PDE   2005    5 4  0000000000000     63.52 -147.44  11 8.50 Ms GS   9C.G F.S.
../5_in/ALL_2005_5_4
 PDE   2005    5 5  0000000000000     63.52 -147.44  11 8.50 Ms GS   9C.G F.S.
../5_in/ALL_2005_5_5
 PDE   2005    5 6  0000000000000     63.52 -147.44  11 8.50 Ms GS   9C.G F.S.
../5_in/ALL_2005_5_6
 PDE   2005    5 7  0000000000000     63.52 -147.44  11 8.50 Ms GS   9C.G F.S.
../5_in/ALL_2005_5_7
 PDE   2005    5 8  0000000000000     63.52 -147.44  11 8.50 Ms GS   9C.G F.S.
../5_in/ALL_2005_5_8
 PDE   2005    5 9  0000000000000     63.52 -147.44  11 8.50 Ms GS   9C.G F.S.
../5_in/ALL_2005_5_9
 PDE   2005    5 10  0000000000000     63.52 -147.44  11 8.50 Ms GS   9C.G F.S.
../5_in/ALL_2005_5_10
 PDE   2005    5 11  0000000000000     63.52 -147.44  11 8.50 Ms GS   9C.G F.S.
../5_in/ALL_2005_5_11
 PDE   2005    5 12  0000000000000     63.52 -147.44  11 8.50 Ms GS   9C.G F.S.
../5_in/ALL_2005_5_12
 PDE   2005    5 13  0000000000000     63.52 -147.44  11 8.50 Ms GS   9C.G F.S.
../5_in/ALL_2005_5_13
 PDE   2005    5 14  0000000000000     63.52 -147.44  11 8.50 Ms GS   9C.G F.S.
../5_in/ALL_2005_5_14
 PDE   2005    5 15  0000000000000     63.52 -147.44  11 8.50 Ms GS   9C.G F.S.
../5_in/ALL_2005_5_15
 PDE   2005    5 16  0000000000000     63.52 -147.44  11 8.50 Ms GS   9C.G F.S.
../5_in/ALL_2005_5_16
 PDE   2005    5 17  0000000000000     63.52 -147.44  11 8.50 Ms GS   9C.G F.S.
../5_in/ALL_2005_5_17
 PDE   2005    5 18  0000000000000     63.52 -147.44  11 8.50 Ms GS   9C.G F.S.
../5_in/ALL_2005_5_18
 PDE   2005    5 19  0000000000000     63.52 -147.44  11 8.50 Ms GS   9C.G F.S.
../5_in/ALL_2005_5_19
 PDE   2005    5 20  0000000000000     63.52 -147.44  11 8.50 Ms GS   9C.G F.S.
../5_in/ALL_2005_5_20
 PDE   2005    5 21  0000000000000     63.52 -147.44  11 8.50 Ms GS   9C.G F.S.
../5_in/ALL_2005_5_21
 PDE   2005    5 22  0000000000000     63.52 -147.44  11 8.50 Ms GS   9C.G F.S.
../5_in/ALL_2005_5_22
 PDE   2005    5 23  0000000000000     63.52 -147.44  11 8.50 Ms GS   9C.G F.S.
../5_in/ALL_2005_5_23
 PDE   2005    5 24  0000000000000     63.52 -147.44  11 8.50 Ms GS   9C.G F.S.
../5_in/ALL_2005_5_24
 PDE   2005    5 25  0000000000000     63.52 -147.44  11 8.50 Ms GS   9C.G F.S.
../5_in/ALL_2005_5_25
 PDE   2005    5 26  0000000000000     63.52 -147.44  11 8.50 Ms GS   9C.G F.S.
../5_in/ALL_2005_5_26
 PDE   2005    5 27  0000000000000     63.52 -147.44  11 8.50 Ms GS   9C.G F.S.
../5_in/ALL_2005_5_27
 PDE   2005    5 28  0000000000000     63.52 -147.44  11 8.50 Ms GS   9C.G F.S.
../5_in/ALL_2005_5_28
 PDE   2005    5 29  0000000000000     63.52 -147.44  11 8.50 Ms GS   9C.G F.S.
../5_in/ALL_2005_5_29
 PDE   2005    5 30  0000000000000     63.52 -147.44  11 8.50 Ms GS   9C.G F.S.
../5_in/ALL_2005_5_30
 PDE   2005    5 31  0000000000000     63.52 -147.44  11 8.50 Ms GS   9C.G F.S.
../5_in/ALL_2005_5_31
